!!>>>>>>>>>>>>>>>>>>>>>>>>>>>>>>>>>>>>>>>>>>>>>>>>>>>>>>>>>>>>>>>>>>>>>>
!! NEMO/OPA  : GYRE_PISCES Configuration namelist to overwrite reference dynamical namelist
!!>>>>>>>>>>>>>>>>>>>>>>>>>>>>>>>>>>>>>>>>>>>>>>>>>>>>>>>>>>>>>>>>>>>>>>
!-----------------------------------------------------------------------
&namrun        !   parameters of the run
!-----------------------------------------------------------------------
	cn_exp = WRF_NEMO_20210511  !  experiment name 
	nn_it000 = 1  !  first time step 
	nn_itend = 3600  !  last  time step 
	nn_date0 = 00010101  !  date at nit_0000 (format yyyymmdd) 
   nn_leapy    =       1   !  Leap year calendar (1) or not (0)
	ln_rstart = .false.  !  start from rest (F) or from a restart file (T) 
	nn_rstctl = 0  !  restart control ==> activated only if ln_rstart=T 
                           !    = 0 nn_date0 read in namelist ; nn_it000 : read in namelist
                           !    = 1 nn_date0 read in namelist ; nn_it000 : check consistancy between namelist and restart
                          !    = 2 nn_date0 read in restart  ; nn_it000 : check consistancy between namelist and restart
	nn_stock = 3600  !  frequency of creation of a restart file 
	nn_write = 3600  !  frequency of write in the output file (no iomput) 
   ln_clobber  = .true.    !  clobber (overwrite) an existing file
/
!-----------------------------------------------------------------------
&namcfg     !   parameters of the configuration   
!-----------------------------------------------------------------------
   cp_cfg      =  "AdriaCLIM"            !  name of the configuration
   jp_cfg      =       0                 !  resolution of the configuration
   jpidta      =      432                !  1st lateral dimension ( >= jpi ) = 30*jp_cfg+2
   jpjdta      =      331                !  2nd    "         "    ( >= jpj ) = 20*jp_cfg+2 
   jpkdta      =      120                !  number of levels      ( >= jpk )
   jpiglo      =      432                !  1st dimension of global domain --> i  = jpidta
   jpjglo      =      331                !  2nd    -                  -    --> j  = jpjdta
   jpizoom     =       1                 !  left bottom (i,j) indices of the zoom
   jpjzoom     =       1                 !  in data domain indices
   jperio      =       0                 !  lateral cond. type (between 0 and 6)
/
!-----------------------------------------------------------------------
&namzgr        !   vertical coordinate
!-----------------------------------------------------------------------
	ln_zco = .false.  !  z-coordinate - full    steps 
	ln_zps = .true.  !  z-coordinate - partial steps 
/
!-----------------------------------------------------------------------
&namzgr_sco    !   s-coordinate or hybrid z-s-coordinate
!-----------------------------------------------------------------------
/
!-----------------------------------------------------------------------
&namdom        !   space and time domain (bathymetry, mesh, timestep)
!-----------------------------------------------------------------------
   nn_bathy    =    1      !  compute (=0) or read (=1) the bathymetry file
	nn_closea = 1  !  remove (=0) or keep (=1) closed seas and lakes 
	nn_msh = 1  !  create (=1) a mesh file or not (=0) 
   rn_hmin     =    5.     !  min depth of the ocean (>0) or min number of ocean level (<0)
   rn_e3zps_min=    20.     !  partial step thickness is set larger than the minimum of
   rn_e3zps_rat=    0.2    !  rn_e3zps_min and rn_e3zps_rat*e3t, with 0<rn_e3zps_rat<1
                           !
	rn_rdt = 120  !  time step for the dynamics 
   rn_atfp     =    0.1    !  asselin time filter parameter
   nn_acc      =    0      !  acceleration of convergence : =1      used, rdt < rdttra(k)
                                 !                          
   rn_rdtmin   =  600.           !  minimum time step on tracers (used if nn_acc=1)
   rn_rdtmax   =  600.           !  maximum time step on tracers (used if nn_acc=1)
   rn_rdth     =  600.           !  depth variation of tracer time step (used if nn_acc=1)
   rn_bathy    =    0.     !  value of the bathymetry. if (=0) bottom flat at jpkm1
                           !                               =0, not used, rdt = rdttra
   ln_crs      = .false.      !  Logical switch for coarsening module
   jphgr_msh   =       1               !  type of horizontal mesh
                                       !  = 0 curvilinear coordinate on the sphere read in coordinate.nc
                                       !  = 1 geographical mesh on the sphere with regular grid-spacing
                                       !  = 2 f-plane with regular grid-spacing
                                       !  = 3 beta-plane with regular grid-spacing
                                       !  = 4 Mercator grid with T/U point at the equator
   ppglam0     =  12.0               !  longitude of first raw and column T-point (jphgr_msh = 1)
   ppgphi0     =  39.0               ! latitude  of first raw and column T-point (jphgr_msh = 1)
   ppe1_deg    =  0.020833333               !  zonal      grid-spacing (degrees)
   ppe2_deg    =  0.020833333               !  meridional grid-spacing (degrees)
   ppe1_m      =  999999.0               !  zonal      grid-spacing (degrees)
   ppe2_m      =  999999.0               !  meridional grid-spacing (degrees)
   ppsur       =  999999.0               !  ORCA r4, r2 and r05 coefficients
   ppa0        =  999999.0               ! (default coefficients)
   ppa1        =  999999.0               !
   ppkth       =      80.0               !
   ppacr       =      30.0               !
   ppdzmin     =       0.82              !  Minimum vertical spacing
   pphmax      =    2800.0               !  Maximum depth
   ldbletanh   =  .false.               !  Use/do not use double tanf function for vertical coordinates
   ppa2        =  999999.0               !  Double tanh function parameters
   ppkth2      =  999999.0               !
   ppacr2      =  999999.0               !
/
!-----------------------------------------------------------------------
&namsplit      !   time splitting parameters                            ("key_dynspg_ts")
!-----------------------------------------------------------------------
   ln_bt_fw      =    .false.           !  Forward integration of barotropic equations
   ln_bt_av      =    .true.           !  Time filtering of barotropic variables
   ln_bt_nn_auto =    .false.          !  Set nn_baro automatically to be just below
                                       !  a user defined maximum courant number (rn_bt_cmax)
   nn_baro       =    60               !  Number of iterations of barotropic mode
                                       !  during rn_rdt seconds. Only used if ln_bt_nn_auto=F
   rn_bt_cmax    =    0.8              !  Maximum courant number allowed if ln_bt_nn_auto=T
   nn_bt_flt     =    1                !  Time filter choice
                                       !  = 0 None
                                       !  = 1 Boxcar over   nn_baro barotropic steps
                                       !  = 2 Boxcar over 2*nn_baro     "        "
/
!-----------------------------------------------------------------------
&namcrs        !   Grid coarsening for dynamics output and/or
               !   passive tracer coarsened online simulations
!-----------------------------------------------------------------------
/
!-----------------------------------------------------------------------
&namtsd    !   data : Temperature  & Salinity
!-----------------------------------------------------------------------
!          !  file name                            ! frequency (hours) ! variable  ! time interp. !  clim  ! 'yearly'/ ! weights  ! rotation ! land/sea mask !
!          !                                       !  (if <0  months)  !   name    !   (logical)  !  (T/F) ! 'monthly' ! filename ! pairing  ! filename      !
   sn_tem  = 'data_1m_potential_temperature_nomask', -1 ,'votemper' , .true.  , .true. , 'monthly'   , ''       ,   ''    ,    ''
   sn_sal  = 'data_1m_salinity_nomask'             , -1 ,'vosaline' , .true.  , .true. , 'monthly'   , ''       ,   ''    ,    ''
!
!   cn_dir        = './'          !  root directory for the location of the runoff files
   cn_dir        = '/work/opa/resm-dev/fabio/CESM_workdir_20210511/my_cesm2/cime/din_loc_root/nemo'          !  root directory for the location of the runoff files
   ln_tsd_init   = .true.        !  Initialisation of ocean T & S with T &S input data (T) or not (F)
   ln_tsd_tradmp = .false.       !  damping of ocean T & S toward T &S input data (T) or not (F)
/
!-----------------------------------------------------------------------
&namsbc        !   Surface Boundary Condition (surface module)
!-----------------------------------------------------------------------
	nn_fsbc = 30  !  frequency of surface boundary condition computation 
                           !     (also = the frequency of sea-ice model call)
   ln_ana      = .false.   !  analytical formulation                    (T => fill namsbc_ana )
	ln_blk_core = .false.  !  CORE bulk formulation 
   ln_blk_mfs  = .true.    !  MFS bulk formulation                      (T => fill namsbc_mfs )
	nn_ice = 0  !  =0 no ice boundary condition from LIM model 
	ln_ssr = .false.  !  Sea Surface Restoring on T and/or S 
	nn_fwb = 0  !  FreshWater Budget: =0 unchecked, =1 global mean of e-p-r set to zero at each time step 
	ln_rnf = .true.  !  runoffs 
/
!-----------------------------------------------------------------------
&namsbc_ana    !   analytical surface boundary condition
!-----------------------------------------------------------------------
   nn_tau000   =   0       !  gently increase the stress over the first ntau_rst time-steps
   rn_utau0    =   0.5     !  uniform value for the i-stress
   rn_vtau0    =   0.e0    !  uniform value for the j-stress
   rn_qns0     =   0.e0    !  uniform value for the total heat flux
   rn_qsr0     =   0.e0    !  uniform value for the solar radiation
   rn_emp0     =   0.e0    !  uniform value for the freswater budget (E-P)
/
!-----------------------------------------------------------------------
&namsbc_flx    !   surface boundary condition : flux formulation
!-----------------------------------------------------------------------
/
!-----------------------------------------------------------------------
&namsbc_clio   !   namsbc_clio  CLIO bulk formulae
!-----------------------------------------------------------------------
/
!-----------------------------------------------------------------------
&namsbc_core   !   namsbc_core  CORE bulk formulae
!-----------------------------------------------------------------------
!   cn_dir      = '/work/opa/mg01720/force/ECMWF/IFS_010/analysis/6h/netcdf/'      !  root directory for the location of the bulk files
   cn_dir      = '/work/opa/resm-dev/fabio/CESM_workdir_20210511/my_cesm2/cime/din_loc_root/nemo'
   ln_taudif   = .false.   !  HF tau contribution: use "mean of stress module - module of the mean stress" data
   rn_pfac     = 1.        !  multiplicative factor for precipitation (total & snow)
   rn_efac     = 1.        !  multiplicative factor for evaporation (0. or 1.)
   rn_vfac     = 0.        !  multiplicative factor for ocean/ice velocity 
                           !  in the calculation of the wind stress (0.=absolute winds or 1.=relative winds)
   sn_wndi     = 'forcing012010'       ,         1         , 'var33'   ,   .true.    , .false.  , 'yearly'  , 'weights_bicub.nc'   , ''   , ''
   sn_wndj     = 'forcing012010'       ,         1         , 'var34'   ,   .true.    , .false.  , 'yearly'  , 'weights_bicub.nc'   , ''   , ''
   sn_humi     = 'forcing012010'       ,         1         , 'var51'   ,   .true.    , .false.  , 'yearly'  , 'weights_bilin.nc'   , ''   , ''
   sn_qsr      = 'forcing012010'       ,         1         , 'var204'  ,   .true.    , .false.  , 'yearly'  , 'weights_bilin.nc'   , ''   , ''
   sn_qlw      = 'forcing012010'       ,         1         , 'var205'  ,   .true.    , .false.  , 'yearly'  , 'weights_bilin.nc'   , ''   , ''
   sn_tair     = 'forcing012010'       ,         1         , 'var11'   ,   .true.    , .false.  , 'yearly'  , 'weights_bilin.nc'   , ''   , ''
   sn_prec     = 'forcing012010'       ,         1         , 'var61'   ,   .true.    , .false.  , 'yearly'  , 'weights_bilin.nc'   , ''   , ''
   sn_snow     = 'dum_box'                 ,        -1         , 'sozodum' ,   .true.    , .true.   , 'yearly'  , ''                   , ''   , ''
   sn_tdif     = 'dum_box'                 ,        -1         , 'sozodum' ,   .true.    , .true.   , 'yearly'  , ''                   , ''   , ''
   rn_zqt      = 2.        !  Air temperature and humidity reference height (m)
   rn_zu       = 10.       !  Wind vector reference height (m)
/
!-----------------------------------------------------------------------
&namsbc_mfs   !   namsbc_mfs  MFS bulk formulae
!-----------------------------------------------------------------------
!              !  file name  ! frequency (hours) ! variable  ! time interp. !  clim  ! 'yearly'/ ! weights     ! rotation ! land/sea mask !
!              !             !  (if <0  months)  !   name    !   (logical)  !  (T/F) ! 'monthly' ! filename    ! pairing  ! filename      !
   sn_wndi     = 'ecmwf' ,           6       , 'u10'      , .true. ,  .false.  ,  'daily'    ,'weights_bicub.nc' ,    ''    ,    ''
   sn_wndj     = 'ecmwf' ,           6       , 'v10'      , .true. ,  .false.  ,  'daily'    ,'weights_bicub.nc' ,    ''    ,    ''
   sn_clc      = 'ecmwf' ,           6       , 'clc'      , .true. ,  .false.  ,  'daily'    ,'weights_bilin.nc' ,    ''    ,    ''
   sn_msl      = 'ecmwf' ,           6       , 'msl'      , .true. ,  .false.  ,  'daily'    ,'weights_bilin.nc' ,    ''    ,    ''
   sn_tair     = 'ecmwf' ,           6       , 't2'       , .true. ,  .false.  ,  'daily'    ,'weights_bilin.nc' ,    ''    ,    ''
   sn_rhm      = 'ecmwf' ,           6       , 'rh'       , .true. ,  .false.  ,  'daily'    ,'weights_bilin.nc' ,    ''    ,    ''
   sn_prec     = 'ecmwf' ,           6       , 'precip'   , .true. ,  .false.  ,  'daily'    ,'weights_bilin.nc' ,    ''    ,    ''
!   cn_dir      = '/work/opa/mg01720/nemo/ADRb.020/force/IFS_010_prec/'      !  root directory for the location of the bulk files
   cn_dir      = '/work/opa/resm-dev/fabio/CESM_workdir_20210511/my_cesm2/cime/din_loc_root/nemo'
/
!-----------------------------------------------------------------------
&namsbc_cpl    !   coupled ocean/atmosphere model                       ("key_oasis3")
!-----------------------------------------------------------------------
/
!-----------------------------------------------------------------------
&namtra_qsr    !   penetrative solar radiation
!-----------------------------------------------------------------------
   ln_traqsr   = .true.    !  Light penetration (T) or not (F)
   ln_qsr_rgb  = .false.   !  RGB (Red-Green-Blue) light penetration
   ln_qsr_2bd  = .true.    !  2 bands              light penetration
   ln_qsr_bio  = .false.   !  bio-model light penetration
   nn_chldta   =      0    !  RGB : 2D Chl data (=1), 3D Chl data (=2) or cst value (=0)
   rn_abs      =   0.58    !  RGB & 2 bands: fraction of light (rn_si1)
   rn_si0      =   0.35    !  RGB & 2 bands: shortess depth of extinction
   rn_si1      =   23.0    !  2 bands: longest depth of extinction
   ln_qsr_ice  = .true.    !  light penetration for ice-model LIM3
/
!-----------------------------------------------------------------------
&namsbc_rnf    !   runoffs namelist surface boundary condition
!-----------------------------------------------------------------------
!              !  file name           ! frequency (hours) ! variable  ! time interp. !  clim  ! 'yearly'/ ! weights  ! rotation ! land/sea mask !
!              !                      !  (if <0  months)  !   name    !   (logical)  !  (T/F) ! 'monthly' ! filename ! pairing  ! filename      !
   sn_rnf      = 'runoff_1m_nomask'   ,        24         , 'rorunoff'   ,   .true.     , .false. , 'yearly'  , ''       , ''
   sn_cnf      = 'runoff_1m_nomask'   ,         0         , 'river_msk'  ,   .false.    , .false. , 'yearly'  , ''       , ''
   sn_s_rnf    = 'runoff_1m_nomask'   ,        24         , 'rosaline'    ,   .true.     , .false. , 'yearly'  , ''       , ''
 !  sn_t_rnf    = 'runoff_1m_nomask'   ,         0         , 'rotemper'   ,   .true.     , .false. , 'yearly'  , ''       , ''
 !  sn_dep_rnf  = 'rodepth'            ,        24         , 'rodepth'    ,   .false.    , .false. , 'yearly'  , ''       , ''

!   cn_dir       = '/work/opa/mg01720/AdriaCLIM/expt_10.7/'      !  root directory for the location of the runoff files
   cn_dir      = '/work/opa/resm-dev/fabio/CESM_workdir_20210511/my_cesm2/cime/din_loc_root/nemo'
	ln_rnf_mouth = .false.  !  specific treatment at rivers mouths 
   rn_hrnf      =  0.e0     !  depth over which enhanced vertical mixing is used
   rn_avt_rnf   =   1.e-3   !  value of the additional vertical mixing coef. [m2/s]
   rn_rfact     =   1.e0    !  multiplicative factor for runoff
	ln_rnf_depth = .true.  !  compute depth propagation of runoff (uses rn_hrnf) 
   ln_rnf_tem   = .false.   !  read in temperature information for runoff
   ln_rnf_sal   = .true.    !  read in salinity information for runoff
/
!-----------------------------------------------------------------------
&namsbc_apr    !   Atmospheric pressure used as ocean forcing or in bulk
!-----------------------------------------------------------------------
/
!-----------------------------------------------------------------------
&namsbc_ssr    !   surface boundary condition : sea surface restoring
!-----------------------------------------------------------------------
   nn_sssr     =     0     !  add a damping     term in the surface freshwater flux (=2)
   rn_deds     =   -27.7   !  magnitude of the damping on salinity   [mm/day]
   ln_sssr_bnd =   .false. !  flag to bound erp term (associated with nn_sssr=2)
/
!-----------------------------------------------------------------------
&namsbc_alb    !   albedo parameters
!-----------------------------------------------------------------------
/
!-----------------------------------------------------------------------
&namberg       !   iceberg parameters
!-----------------------------------------------------------------------
/
!-----------------------------------------------------------------------
&namlbc        !   lateral momentum boundary condition
!-----------------------------------------------------------------------
   rn_shlat    =    2.     !  shlat = 0  !  0 < shlat < 2  !  shlat = 2  !  2 < shlat
                           !  free slip  !   partial slip  !   no slip   ! strong slip
   ln_vorlat   = .true.    !  consistency of vorticity boundary condition with analytical eqs.
/
!-----------------------------------------------------------------------
&namcla        !   cross land advection
!-----------------------------------------------------------------------
/
!-----------------------------------------------------------------------
&namagrif      !  AGRIF zoom                                            ("key_agrif")
!-----------------------------------------------------------------------
/
!-----------------------------------------------------------------------
&nam_tide      !   tide parameters (#ifdef key_tide)
!-----------------------------------------------------------------------
/
!-----------------------------------------------------------------------
&nambdy        !  unstructured open boundaries                          ("key_bdy")
!-----------------------------------------------------------------------
    nb_bdy         = 1                   !  number of open boundary sets
    ln_coords_file = .false.,.false.,.false.,.false.              !  =T : read bdy coordinates from file
    cn_coords_file = '','','','' !  bdy coordinates files
    ln_mask_file   = .false.              !  =T : read mask from file
    cn_mask_file   = ''                   !  name of mask file (if ln_mask_file=.TRUE.)
    cn_dyn2d       = 'flather','orlanski','orlanski','flather'             !
    nn_dyn2d_dta   =  1,1,1,1                  !  = 0, bdy data are equal to the initial state
                                          !  = 1, bdy data are read in 'bdydata   .nc' files
                                          !  = 2, use tidal harmonic forcing data from files
                                          !  = 3, use external data AND tidal harmonic forcing
    cn_dyn3d       =  'specified','specified','specified','none'               !
    nn_dyn3d_dta   =  1,1,1,1                     !  = 0, bdy data are equal to the initial state
                                          !  = 1, bdy data are read in 'bdydata   .nc' files
    cn_tra         =  'specified','specified','specified','specified'               !
    nn_tra_dta     =  1,1,1,1                   !  = 0, bdy data are equal to the initial state
                                          !  = 1, bdy data are read in 'bdydata   .nc' files
    cn_ice_lim     =  'none'             !
    nn_ice_lim_dta =  0                  !  = 0, bdy data are equal to the initial state
                                          !  = 1, bdy data are read in 'bdydata   .nc' files
    rn_ice_tem     = 270.                !  lim3 only: arbitrary temperature of incoming sea ice
    rn_ice_sal     = 10.                 !  lim3 only:      --   salinity           --
    rn_ice_age     = 30.                 !  lim3 only:      --   age                --

    ln_tra_dmp     = .false.,.false.,.false.,.false.                !  open boudaries conditions for tracers
    ln_dyn3d_dmp   = .false.,.false.,.false.,.false.             !  open boundary condition for baroclinic velocities
    rn_time_dmp    =  1.,1.,1.,1.                   ! Damping time scale in days
    rn_time_dmp_out =  1.,1.,1.,1.                ! Outflow damping time scale
    nn_rimwidth   = 10,10,10,10                    !  width of the relaxation zone
    ln_vol        = .false.               !  total volume correction (see nn_volctl parameter)
    nn_volctl     =  1                    !  = 0, the total water flux across open boundaries is zero
           ! CASE( 1 )  The total volume will be constant
           ! CASE( 0 )  The total volume will vary according to the surface E-P flux
/
!-----------------------------------------------------------------------
&nambdy_index      !  open boundaries - definition           ("key_bdy")
!-----------------------------------------------------------------------
!
   ctypebdy = 'S'
    nbdyind  = 2                   ! indice of velocity row or column
    nbdybeg  = 2                   ! indice of segment start
    nbdyend  = 431                 ! indice of segment end
/
!-----------------------------------------------------------------------
&nambdy_dta      !  open boundaries - external data           ("key_bdy")
!-----------------------------------------------------------------------
!              !  file name      ! frequency (hours) ! variable   ! time interp.   !  clim   ! 'yearly'/ ! weights  ! rotation ! land/sea mask !
!              !                 !  (if <0  months)  !   name     !   (logical)    !  (T/F ) ! 'monthly' ! filename ! pairing  ! filename      !
   bn_ssh =     'aobc_south_TS' ,          24        , 'sossheig' ,     .true.     , .false. ,  'daily'  ,    ''    ,   ''     , ''
   bn_u2d =     'aobc_south_U' ,           24        , 'u2d'      ,     .true.     , .false. ,  'daily'  ,    ''    ,   ''     , ''
   bn_v2d =     'aobc_south_V' ,           24        , 'v2d'      ,     .true.     , .false. ,  'daily'  ,    ''    ,   ''     , ''
   bn_u3d  =    'aobc_south_U' ,           24        , 'vozocrtx' ,     .true.     , .false. ,  'daily'  ,    ''    ,   ''     , ''
   bn_v3d  =    'aobc_south_V' ,           24        , 'vomecrty' ,     .true.     , .false. ,  'daily'  ,    ''    ,   ''     , ''
   bn_tem  =    'aobc_south_TS' ,          24        , 'votemper' ,     .true.     , .false. ,  'daily'  ,    ''    ,   ''     , ''
   bn_sal  =    'aobc_south_TS' ,          24        , 'vosaline' ,     .true.     , .false. ,  'daily'  ,    ''    ,   ''     , ''
!   cn_dir  =    '/users_home/opa/mg01720/nemo/ADRb.020/lobc/relax_CMEMS_006_013_daily_adr/data/'
   cn_dir      = '/work/opa/resm-dev/fabio/CESM_workdir_20210511/my_cesm2/cime/din_loc_root/nemo'
   ln_full_vel = .true.
/
!-----------------------------------------------------------------------
&nambdy_tide     ! tidal forcing at open boundaries
!-----------------------------------------------------------------------
/
!-----------------------------------------------------------------------
&nambfr        !   bottom friction
!-----------------------------------------------------------------------
   nn_bfr      =    2      !  type of bottom friction :   = 0 : free slip,  = 1 : linear friction
                           !                              = 2 : nonlinear friction
   rn_bfri1    =    4.e-4  !  bottom drag coefficient (linear case)
   rn_bfri2    =    1.e-3  !  bottom drag coefficient (non linear case). Minimum coeft if ln_loglayer=T
   rn_bfri2_max =   1.e-1  !  max. bottom drag coefficient (non linear case and ln_loglayer=T)
   rn_bfeb2    =    2.5e-3     !  bottom turbulent kinetic energy background  (m2/s2)
   rn_bfrz0    =    1.e-2  !  bottom roughness [m] if ln_loglayer=T
   ln_bfr2d    = .false.   !  horizontal variation of the bottom friction coef (read a 2D mask file )
   rn_bfrien   =    50.    !  local multiplying factor of bfr (ln_bfr2d=T)
   rn_tfri1    =    4.e-4  !  top drag coefficient (linear case)
   rn_tfri2    =    2.5e-3 !  top drag coefficient (non linear case). Minimum coeft if ln_loglayer=T
   rn_tfri2_max =   1.e-1  !  max. top drag coefficient (non linear case and ln_loglayer=T)
   rn_tfeb2    =    0.0    !  top turbulent kinetic energy background  (m2/s2)
   rn_tfrz0    =    3.e-3  !  top roughness [m] if ln_loglayer=T
   ln_tfr2d    = .false.   !  horizontal variation of the top friction coef (read a 2D mask file )
   rn_tfrien   =    50.    !  local multiplying factor of tfr (ln_tfr2d=T)

   ln_bfrimp   = .false.   !  implicit bottom friction (requires ln_zdfexp = .false. if true)
   ln_loglayer = .true.    !  logarithmic formulation (non linear case)
/
!-----------------------------------------------------------------------
&nambbc        !   bottom temperature boundary condition
!-----------------------------------------------------------------------
   ln_trabbc   = .false.   !  Apply a geothermal heating at the ocean bottom
   nn_geoflx   =    0      !  geothermal heat flux: = 0 no flux
/
!-----------------------------------------------------------------------
&nambbl        !   bottom boundary layer scheme
!-----------------------------------------------------------------------
   nn_bbl_ldf  =  0      !  diffusive bbl (=1)   or not (=0)
   nn_bbl_adv  =  0      !  advective bbl (=1/2) or not (=0)
   rn_ahtbbl   =  1000.  !  lateral mixing coefficient in the bbl  [m2/s]
   rn_gambbl   =  10.    !  advective bbl coefficient                 [s]
/
!-----------------------------------------------------------------------
&nameos        !   ocean physical parameters
!-----------------------------------------------------------------------
   nn_eos      =   0     !  type of equation of state and Brunt-Vaisala frequency
                                 !  =-1, TEOS-10 
                                 !  = 0, EOS-80 
                                 !  = 1, S-EOS   (simplified eos)
   ln_useCT    = .false. ! use of Conservative Temp. ==> surface CT converted in Pot. Temp. in sbcssm
   !                             !
   !                     ! S-EOS coefficients :
   !                             !  rd(T,S,Z)*rau0 = -a0*(1+.5*lambda*dT+mu*Z+nu*dS)*dT+b0*dS
   rn_a0       =  1.6550e-1      !  thermal expension coefficient (nn_eos= 1)
   rn_b0       =  7.6554e-1      !  saline  expension coefficient (nn_eos= 1)
   rn_lambda1  =  5.9520e-2      !  cabbeling coeff in T^2  (=0 for linear eos)
   rn_lambda2  =  7.4914e-4      !  cabbeling coeff in S^2  (=0 for linear eos)
   rn_mu1      =  1.4970e-4      !  thermobaric coeff. in T (=0 for linear eos)
   rn_mu2      =  1.1090e-5      !  thermobaric coeff. in S (=0 for linear eos)
   rn_nu       =  2.4341e-3      !  cabbeling coeff in T*S  (=0 for linear eos)
!!org GYRE   rn_alpha    =   2.0e-4  !  thermal expension coefficient (nn_eos= 1 or 2)
!!org GYRE   rn_beta     =   7.7e-4  !  saline  expension coefficient (nn_eos= 2)
!!org  caution  now a0 = alpha / rau0   with rau0 = 1026
/
!-----------------------------------------------------------------------
&namtra_adv    !   advection scheme for tracer
!-----------------------------------------------------------------------
   ln_traadv_cen2   =  .false.   !  2nd order centered scheme
   ln_traadv_tvd    =  .false.   !  TVD scheme
   ln_traadv_muscl  =  .true.    !  MUSCL scheme
   ln_traadv_muscl2 =  .false.   !  MUSCL2 scheme + cen2 at boundaries
   ln_traadv_ubs    =  .false.   !  UBS scheme
   ln_traadv_qck    =  .false.   !  QUICKEST scheme
   ln_traadv_msc_ups=  .false.    !  use upstream scheme within muscl
/
!-----------------------------------------------------------------------
&namtra_adv_mle !  mixed layer eddy parametrisation (Fox-Kemper param)
!-----------------------------------------------------------------------
/
!----------------------------------------------------------------------------------
&namtra_ldf    !   lateral diffusion scheme for tracers
!----------------------------------------------------------------------------------
   !                       !  Type of the operator :
   ln_traldf_lap    =  .false.  !  laplacian operator